tests/data/short_circuit/two_phase_bc/asym_sc_output_batch.json
[
  {
    "node":
      [
        {"id": 0, "u_pu": [0.9549178929785012, 0.8339083271798209, 0.9673876629008664], "u_angle": [-0.07180708255136156, -2.07779894457488, 2.1724468967308708], "u": [82698.3153847692, 72218.57957651102, 83778.22913798074]},
        {"id": 1, "u_pu": [1.0000112582718093, 0.5000056291359047, 0.5000056291359047], "u_angle": [-0.5236009434804879, 2.617991710109305, 2.617991710109305], "u": [5773.567691558856, 2886.7838457794282, 2886.7838457794282]},
        {"id": 2, "u_pu": [1.0000013163689014, 0.9806219331161372, 0.9752041366223958], "u_angle": [-0.5235988740361418, -2.6357341895880966, 1.5792242095079987], "u": [5773.510291955654, 5661.623370578531, 5630.343707937769]},
        {"id": 3, "u_pu": [1.0000051616973997, 0.9806257039246385, 0.9752078865977176], "u_angle": [-0.5236001055451974, -2.635735421097152, 1.579222977998943], "u": [5773.53249297009, 5661.645141351563, 5630.365358430384]}
      ],
    "transformer":
      [
        {"id": 6, "i_from": [740.7061616979056, 2153.401642651698, 1718.5277771893475], "i_from_angle": [-0.5069831179584957, -2.8529107624412764, 0.6016505699359741], "i_to": [20442.447688722837, 28710.39242003104, 11546.917905101322], "i_to_angle": [-3.0484186971846614, 0.42744774462027985, -2.094393966725646]}
      ],
    "line":
      [
        {"id": 7, "i_from": [0.2207981395333886, 30202.68634435644, 30202.787769790615], "i_from_angle": [0.8735609042665876, -0.21996615835303868, 2.9216329888268646], "i_to": [0.9441317795102099, 30202.39533600832, 30202.14967448056], "i_to_angle": [1.0876107220132711, 2.9216497598362423, -0.21997307728816726]},
        {"id": 8, "i_from": [0.5804176765500174, 0.5691695547562147, 0.5660249740434711], "i_from_angle": [1.0471968370379308, -1.064938478512468, -3.133165386596864], "i_to": [2.786640034782227e-11, 2.823131726757693e-11, 2.8024057144343582e-11], "i_to_angle": [-1.2077181233989953, 2.9799778266308055, 0.8748490507371449]}
      ],
    "fault":
      [
        {"id": 10, "i": [0.0, 46439.21174994914, 46439.21174994914], "i_angle": [0.0, -0.3218165220216651, 2.819776131568128]}
      ],
    "shunt":
      [
        {"id": 9, "i": [0.0, 0.0, 0.0], "i_angle": [0.0, 0.0, 0.0]}
      ],
    "source":
      [
        {"id": 4, "i": [641.9453401381861, 1283.8858591379762, 641.9405192438862], "i_angle": [2.6346095356312937, -0.5070026177799832, 2.6345705358418856]},
        {"id": 5, "i": [1.5242559305344006, 30202.01756149075, 30201.598349540753], "i_angle": [-2.069367453960514, -0.2199287979827633, 2.9216153328439107]}
      ]
  }
,
  {
    "node":
      [
        {"id": 0, "u_pu": [0.9549178929785012, 0.8339083271798209, 0.9673876629008664], "u_angle": [-0.07180708255136156, -2.07779894457488, 2.1724468967308708], "u": [82698.3153847692, 72218.57957651102, 83778.22913798074]},
        {"id": 1, "u_pu": [1.0000112582718093, 0.5000056291359047, 0.5000056291359047], "u_angle": [-0.5236009434804879, 2.617991710109305, 2.617991710109305], "u": [5773.567691558856, 2886.7838457794282, 2886.7838457794282]},
        {"id": 2, "u_pu": [1.0000013163689014, 0.9806219331161372, 0.9752041366223958], "u_angle": [-0.5235988740361418, -2.6357341895880966, 1.5792242095079987], "u": [5773.510291955654, 5661.623370578531, 5630.343707937769]},
        {"id": 3, "u_pu": [1.0000051616973997, 0.9806257039246385, 0.9752078865977176], "u_angle": [-0.5236001055451974, -2.635735421097152, 1.579222977998943], "u": [5773.53249297009, 5661.645141351563, 5630.365358430384]}
      ],
    "transformer":
      [
        {"id": 6, "i_from": [740.7061616979056, 2153.401642651698, 1718.5277771893475], "i_from_angle": [-0.5069831179584957, -2.8529107624412764, 0.6016505699359741], "i_to": [20442.447688722837, 28710.39242003104, 11546.917905101322], "i_to_angle": [-3.0484186971846614, 0.42744774462027985, -2.094393966725646]}
      ],
    "line":
      [
        {"id": 7, "i_from": [0.2207981395333886, 30202.68634435644, 30202.787769790615], "i_from_angle": [0.8735609042665876, -0.21996615835303868, 2.9216329888268646], "i_to": [0.9441317795102099, 30202.39533600832, 30202.14967448056], "i_to_angle": [1.0876107220132711, 2.9216497598362423, -0.21997307728816726]},
        {"id": 8, "i_from": [0.5804176765500174, 0.5691695547562147, 0.5660249740434711], "i_from_angle": [1.0471968370379308, -1.064938478512468, -3.133165386596864], "i_to": [2.786640034782227e-11, 2.823131726757693e-11, 2.8024057144343582e-11], "i_to_angle": [-1.2077181233989953, 2.9799778266308055, 0.8748490507371449]}
      ],
    "fault":
      [
        {"id": 10, "i": [0.0, 46439.21174994914, 46439.21174994914], "i_angle": [0.0, -0.3218165220216651, 2.819776131568128]}
      ],
    "source":
      [
        {"id": 4, "i": [641.9453401381861, 1283.8858591379762, 641.9405192438862], "i_angle": [2.6346095356312937, -0.5070026177799832, 2.6345705358418856]},
        {"id": 5, "i": [1.5242559305344006, 30202.01756149075, 30201.598349540753], "i_angle": [-2.069367453960514, -0.2199287979827633, 2.9216153328439107]}
      ]
  }
,
  {
    "node":
      [
        {"id": 0, "u_pu": [0.8705419063370643, 0.833908327179821, 0.884395783712567], "u_angle": [-0.026512397447462734, -2.07779894457488, 2.1248623196746323], "u": [75391.14059468311, 72218.57957651104, 76590.9215694931]},
        {"id": 1, "u_pu": [0.3591437856596892, 0.1795718928298446, 0.17957189282984468], "u_angle": [-0.708787039238806, 2.432805614350987, 2.4328056143509866], "u": [2073.5176132840284, 1036.7588066420142, 1036.7588066420146]},
        {"id": 2, "u_pu": [0.010847125323904399, 0.005423562661952201, 0.0054235626619521995], "u_angle": [-0.504819827684201, 2.6367728259055916, 2.636772825905592], "u": [62.62590725689812, 31.312953628449065, 31.31295362844906]},
        {"id": 3, "u_pu": [0.01084716703460962, 0.00542358351730481, 0.00542358351730481], "u_angle": [-0.5048210591932566, 2.6367715943965364, 2.6367715943965364], "u": [62.62614807376699, 31.313074036883496, 31.313074036883496]}
      ],
    "transformer":
      [
        {"id": 6, "i_from": [1170.6897901741604, 1681.6498621308147, 1571.095827066525], "i_from_angle": [-1.2951261349781995, 2.962322690884874, 0.5540659928797357], "i_to": [18275.02804933436, 22792.751038483282, 16528.870106530285], "i_to_angle": [2.515725935032456, 0.1743462148116309, -2.051030148872182]}
      ],
    "line":
      [
        {"id": 7, "i_from": [12524.97000513014, 6262.485002565069, 6262.485002565072], "i_from_angle": [-1.9759424258429497, 1.1656502277468435, 1.165650227746843], "i_to": [12525.175186770162, 6262.58759338508, 6262.587593385083], "i_to_angle": [1.1656452016183112, -1.9759474519714821, -1.9759474519714824]},
        {"id": 8, "i_from": [0.006295854989909528, 0.003147927494861177, 0.0031479274950483513], "i_from_angle": [1.065975883371491, -2.075616770186377, -2.075616770250228], "i_to": [1.7436746845496488e-13, 1.603369244237768e-13, 8.65445959859713e-14], "i_to_angle": [-0.628796286415433, 3.0292656656533925, 1.3576274594948188]}
      ],
    "fault":
      [
        {"id": 10, "i": [0.0, 16678.166543596424, 16678.166543596424], "i_angle": [0.0, -0.5070026177799831, 2.63459003580981]}
      ],
    "shunt":
      [
        {"id": 9, "i": [0.0, 0.0, 0.0], "i_angle": [0.0, 0.0, 0.0]}
      ],
    "source":
      [
        {"id": 4, "i": [1014.5978181509402, 1283.885859137975, 916.8452475272559], "i_angle": [1.8464665186115932, -0.5070026177799833, -2.7465009428182703]}
      ]
  }
,
  {
    "node":
      [
        {"id": 0, "u_pu": [0.8705419063370643, 0.833908327179821, 0.884395783712567], "u_angle": [-0.026512397447462734, -2.07779894457488, 2.1248623196746323], "u": [75391.14059468311, 72218.57957651104, 76590.9215694931]},
        {"id": 1, "u_pu": [0.3591437856596892, 0.1795718928298446, 0.17957189282984468], "u_angle": [-0.708787039238806, 2.432805614350987, 2.4328056143509866], "u": [2073.5176132840284, 1036.7588066420142, 1036.7588066420146]},
        {"id": 2, "u_pu": [0.010847125323904399, 0.005423562661952201, 0.0054235626619521995], "u_angle": [-0.504819827684201, 2.6367728259055916, 2.636772825905592], "u": [62.62590725689812, 31.312953628449065, 31.31295362844906]},
        {"id": 3, "u_pu": [0.01084716703460962, 0.00542358351730481, 0.00542358351730481], "u_angle": [-0.5048210591932566, 2.6367715943965364, 2.6367715943965364], "u": [62.62614807376699, 31.313074036883496, 31.313074036883496]}
      ],
    "transformer":
      [
        {"id": 6, "i_from": [1170.6897901741604, 1681.6498621308147, 1571.095827066525], "i_from_angle": [-1.2951261349781995, 2.962322690884874, 0.5540659928797357], "i_to": [18275.02804933436, 22792.751038483282, 16528.870106530285], "i_to_angle": [2.515725935032456, 0.1743462148116309, -2.051030148872182]}
      ],
    "line":
      [
        {"id": 7, "i_from": [12524.97000513014, 6262.485002565069, 6262.485002565072], "i_from_angle": [-1.9759424258429497, 1.1656502277468435, 1.165650227746843], "i_to": [12525.175186770162, 6262.58759338508, 6262.587593385083], "i_to_angle": [1.1656452016183112, -1.9759474519714821, -1.9759474519714824]},
        {"id": 8, "i_from": [0.006295854989909528, 0.003147927494861177, 0.0031479274950483513], "i_from_angle": [1.065975883371491, -2.075616770186377, -2.075616770250228], "i_to": [1.7436746845496488e-13, 1.603369244237768e-13, 8.65445959859713e-14], "i_to_angle": [-0.628796286415433, 3.0292656656533925, 1.3576274594948188]}
      ],
    "fault":
      [
        {"id": 10, "i": [0.0, 16678.166543596424, 16678.166543596424], "i_angle": [0.0, -0.5070026177799831, 2.63459003580981]}
      ],
    "source":
      [
        {"id": 4, "i": [1014.5978181509402, 1283.885859137975, 916.8452475272559], "i_angle": [1.8464665186115932, -0.5070026177799833, -2.7465009428182703]}
      ]
  }
,
  {
    "node":
      [
        {"id": 0, "u_pu": [0.9549178929785012, 0.8339083271798209, 0.9673876629008664], "u_angle": [-0.07180708255136156, -2.07779894457488, 2.1724468967308708], "u": [82698.3153847692, 72218.57957651102, 83778.22913798074]},
        {"id": 1, "u_pu": [1.0000112582718093, 0.5000056291359047, 0.5000056291359047], "u_angle": [-0.5236009434804879, 2.617991710109305, 2.617991710109305], "u": [5773.567691558856, 2886.7838457794282, 2886.7838457794282]},
        {"id": 2, "u_pu": [1.0000013163689014, 0.9806219331161372, 0.9752041366223958], "u_angle": [-0.5235988740361418, -2.6357341895880966, 1.5792242095079987], "u": [5773.510291955654, 5661.623370578531, 5630.343707937769]},
        {"id": 3, "u_pu": [1.0000051616973997, 0.9806257039246385, 0.9752078865977176], "u_angle": [-0.5236001055451974, -2.635735421097152, 1.579222977998943], "u": [5773.53249297009, 5661.645141351563, 5630.365358430384]}
      ],
    "transformer":
      [
        {"id": 6, "i_from": [740.7061616979056, 2153.401642651698, 1718.5277771893475], "i_from_angle": [-0.5069831179584957, -2.8529107624412764, 0.6016505699359741], "i_to": [20442.447688722837, 28710.39242003104, 11546.917905101322], "i_to_angle": [-3.0484186971846614, 0.42744774462027985, -2.094393966725646]}
      ],
    "line":
      [
        {"id": 7, "i_from": [0.2207981395333886, 30202.68634435644, 30202.787769790615], "i_from_angle": [0.8735609042665876, -0.21996615835303868, 2.9216329888268646], "i_to": [0.9441317795102099, 30202.39533600832, 30202.14967448056], "i_to_angle": [1.0876107220132711, 2.9216497598362423, -0.21997307728816726]},
        {"id": 8, "i_from": [0.5804176765500174, 0.5691695547562147, 0.5660249740434711], "i_from_angle": [1.0471968370379308, -1.064938478512468, -3.133165386596864], "i_to": [2.786640034782227e-11, 2.823131726757693e-11, 2.8024057144343582e-11], "i_to_angle": [-1.2077181233989953, 2.9799778266308055, 0.8748490507371449]}
      ],
    "fault":
      [
        {"id": 10, "i": [0.0, 46439.21174994914, 46439.21174994914], "i_angle": [0.0, -0.3218165220216651, 2.819776131568128]}
      ],
    "shunt":
      [
        {"id": 9, "i": [0.0, 0.0, 0.0], "i_angle": [0.0, 0.0, 0.0]}
      ],
    "source":
      [
        {"id": 4, "i": [641.9453401381861, 1283.8858591379762, 641.9405192438862], "i_angle": [2.6346095356312937, -0.5070026177799832, 2.6345705358418856]},
        {"id": 5, "i": [1.5242559305344006, 30202.01756149075, 30201.598349540753], "i_angle": [-2.069367453960514, -0.2199287979827633, 2.9216153328439107]}
      ]
  }
,
  {
    "node":
      [
        {"id": 0, "u_pu": [0.9549178929785012, 0.8339083271798209, 0.9673876629008664], "u_angle": [-0.07180708255136156, -2.07779894457488, 2.1724468967308708], "u": [82698.3153847692, 72218.57957651102, 83778.22913798074]},
        {"id": 1, "u_pu": [1.0000112582718093, 0.5000056291359047, 0.5000056291359047], "u_angle": [-0.5236009434804879, 2.617991710109305, 2.617991710109305], "u": [5773.567691558856, 2886.7838457794282, 2886.7838457794282]},
        {"id": 2, "u_pu": [1.0000013163689014, 0.9806219331161372, 0.9752041366223958], "u_angle": [-0.5235988740361418, -2.6357341895880966, 1.5792242095079987], "u": [5773.510291955654, 5661.623370578531, 5630.343707937769]},
        {"id": 3, "u_pu": [1.0000051616973997, 0.9806257039246385, 0.9752078865977176], "u_angle": [-0.5236001055451974, -2.635735421097152, 1.579222977998943], "u": [5773.53249297009, 5661.645141351563, 5630.365358430384]}
      ],
    "transformer":
      [
        {"id": 6, "i_from": [740.7061616979056, 2153.401642651698, 1718.5277771893475], "i_from_angle": [-0.5069831179584957, -2.8529107624412764, 0.6016505699359741], "i_to": [20442.447688722837, 28710.39242003104, 11546.917905101322], "i_to_angle": [-3.0484186971846614, 0.42744774462027985, -2.094393966725646]}
      ],
    "line":
      [
        {"id": 7, "i_from": [0.2207981395333886, 30202.68634435644, 30202.787769790615], "i_from_angle": [0.8735609042665876, -0.21996615835303868, 2.9216329888268646], "i_to": [0.9441317795102099, 30202.39533600832, 30202.14967448056], "i_to_angle": [1.0876107220132711, 2.9216497598362423, -0.21997307728816726]},
        {"id": 8, "i_from": [0.5804176765500174, 0.5691695547562147, 0.5660249740434711], "i_from_angle": [1.0471968370379308, -1.064938478512468, -3.133165386596864], "i_to": [2.786640034782227e-11, 2.823131726757693e-11, 2.8024057144343582e-11], "i_to_angle": [-1.2077181233989953, 2.9799778266308055, 0.8748490507371449]}
      ],
    "fault":
      [
        {"id": 10, "i": [0.0, 46439.21174994914, 46439.21174994914], "i_angle": [0.0, -0.3218165220216651, 2.819776131568128]}
      ],
    "source":
      [
        {"id": 4, "i": [641.9453401381861, 1283.8858591379762, 641.9405192438862], "i_angle": [2.6346095356312937, -0.5070026177799832, 2.6345705358418856]},
        {"id": 5, "i": [1.5242559305344006, 30202.01756149075, 30201.598349540753], "i_angle": [-2.069367453960514, -0.2199287979827633, 2.9216153328439107]}
      ]
  }
,
  {
    "node":
      [
        {"id": 0, "u_pu": [0.8705419063370643, 0.833908327179821, 0.884395783712567], "u_angle": [-0.026512397447462734, -2.07779894457488, 2.1248623196746323], "u": [75391.14059468311, 72218.57957651104, 76590.9215694931]},
        {"id": 1, "u_pu": [0.3591437856596892, 0.1795718928298446, 0.17957189282984468], "u_angle": [-0.708787039238806, 2.432805614350987, 2.4328056143509866], "u": [2073.5176132840284, 1036.7588066420142, 1036.7588066420146]},
        {"id": 2, "u_pu": [0.010847125323904399, 0.005423562661952201, 0.0054235626619521995], "u_angle": [-0.504819827684201, 2.6367728259055916, 2.636772825905592], "u": [62.62590725689812, 31.312953628449065, 31.31295362844906]},
        {"id": 3, "u_pu": [0.01084716703460962, 0.00542358351730481, 0.00542358351730481], "u_angle": [-0.5048210591932566, 2.6367715943965364, 2.6367715943965364], "u": [62.62614807376699, 31.313074036883496, 31.313074036883496]}
      ],
    "transformer":
      [
        {"id": 6, "i_from": [1170.6897901741604, 1681.6498621308147, 1571.095827066525], "i_from_angle": [-1.2951261349781995, 2.962322690884874, 0.5540659928797357], "i_to": [18275.02804933436, 22792.751038483282, 16528.870106530285], "i_to_angle": [2.515725935032456, 0.1743462148116309, -2.051030148872182]}
      ],
    "line":
      [
        {"id": 7, "i_from": [12524.97000513014, 6262.485002565069, 6262.485002565072], "i_from_angle": [-1.9759424258429497, 1.1656502277468435, 1.165650227746843], "i_to": [12525.175186770162, 6262.58759338508, 6262.587593385083], "i_to_angle": [1.1656452016183112, -1.9759474519714821, -1.9759474519714824]},
        {"id": 8, "i_from": [0.006295854989909528, 0.003147927494861177, 0.0031479274950483513], "i_from_angle": [1.065975883371491, -2.075616770186377, -2.075616770250228], "i_to": [1.7436746845496488e-13, 1.603369244237768e-13, 8.65445959859713e-14], "i_to_angle": [-0.628796286415433, 3.0292656656533925, 1.3576274594948188]}
      ],
    "fault":
      [
        {"id": 10, "i": [0.0, 16678.166543596424, 16678.166543596424], "i_angle": [0.0, -0.5070026177799831, 2.63459003580981]}
      ],
    "shunt":
      [
        {"id": 9, "i": [0.0, 0.0, 0.0], "i_angle": [0.0, 0.0, 0.0]}
      ],
    "source":
      [
        {"id": 4, "i": [1014.5978181509402, 1283.885859137975, 916.8452475272559], "i_angle": [1.8464665186115932, -0.5070026177799833, -2.7465009428182703]}
      ]
  }
,
  {
    "node":
      [
        {"id": 0, "u_pu": [0.8705419063370643, 0.833908327179821, 0.884395783712567], "u_angle": [-0.026512397447462734, -2.07779894457488, 2.1248623196746323], "u": [75391.14059468311, 72218.57957651104, 76590.9215694931]},
        {"id": 1, "u_pu": [0.3591437856596892, 0.1795718928298446, 0.17957189282984468], "u_angle": [-0.708787039238806, 2.432805614350987, 2.4328056143509866], "u": [2073.5176132840284, 1036.7588066420142, 1036.7588066420146]},
        {"id": 2, "u_pu": [0.010847125323904399, 0.005423562661952201, 0.0054235626619521995], "u_angle": [-0.504819827684201, 2.6367728259055916, 2.636772825905592], "u": [62.62590725689812, 31.312953628449065, 31.31295362844906]},
        {"id": 3, "u_pu": [0.01084716703460962, 0.00542358351730481, 0.00542358351730481], "u_angle": [-0.5048210591932566, 2.6367715943965364, 2.6367715943965364], "u": [62.62614807376699, 31.313074036883496, 31.313074036883496]}
      ],
    "transformer":
      [
        {"id": 6, "i_from": [1170.6897901741604, 1681.6498621308147, 1571.095827066525], "i_from_angle": [-1.2951261349781995, 2.962322690884874, 0.5540659928797357], "i_to": [18275.02804933436, 22792.751038483282, 16528.870106530285], "i_to_angle": [2.515725935032456, 0.1743462148116309, -2.051030148872182]}
      ],
    "line":
      [
        {"id": 7, "i_from": [12524.97000513014, 6262.485002565069, 6262.485002565072], "i_from_angle": [-1.9759424258429497, 1.1656502277468435, 1.165650227746843], "i_to": [12525.175186770162, 6262.58759338508, 6262.587593385083], "i_to_angle": [1.1656452016183112, -1.9759474519714821, -1.9759474519714824]},
        {"id": 8, "i_from": [0.006295854989909528, 0.003147927494861177, 0.0031479274950483513], "i_from_angle": [1.065975883371491, -2.075616770186377, -2.075616770250228], "i_to": [1.7436746845496488e-13, 1.603369244237768e-13, 8.65445959859713e-14], "i_to_angle": [-0.628796286415433, 3.0292656656533925, 1.3576274594948188]}
      ],
    "fault":
      [
        {"id": 10, "i": [0.0, 16678.166543596424, 16678.166543596424], "i_angle": [0.0, -0.5070026177799831, 2.63459003580981]}
      ],
    "source":
      [
        {"id": 4, "i": [1014.5978181509402, 1283.885859137975, 916.8452475272559], "i_angle": [1.8464665186115932, -0.5070026177799833, -2.7465009428182703]}
      ]
  }
,
  {
    "node":
      [
        {"id": 0, "u_pu": [0.9549178929785012, 0.8339083271798209, 0.9673876629008664], "u_angle": [-0.07180708255136156, -2.07779894457488, 2.1724468967308708], "u": [82698.3153847692, 72218.57957651102, 83778.22913798074]},
        {"id": 1, "u_pu": [1.0000112582718093, 0.5000056291359047, 0.5000056291359047], "u_angle": [-0.5236009434804879, 2.617991710109305, 2.617991710109305], "u": [5773.567691558856, 2886.7838457794282, 2886.7838457794282]},
        {"id": 2, "u_pu": [1.0000013163689014, 0.9806219331161372, 0.9752041366223958], "u_angle": [-0.5235988740361418, -2.6357341895880966, 1.5792242095079987], "u": [5773.510291955654, 5661.623370578531, 5630.343707937769]},
        {"id": 3, "u_pu": [1.0000051616973997, 0.9806257039246385, 0.9752078865977176], "u_angle": [-0.5236001055451974, -2.635735421097152, 1.579222977998943], "u": [5773.53249297009, 5661.645141351563, 5630.365358430384]}
      ],
    "transformer":
      [
        {"id": 6, "i_from": [740.7061616979056, 2153.401642651698, 1718.5277771893475], "i_from_angle": [-0.5069831179584957, -2.8529107624412764, 0.6016505699359741], "i_to": [20442.447688722837, 28710.39242003104, 11546.917905101322], "i_to_angle": [-3.0484186971846614, 0.42744774462027985, -2.094393966725646]}
      ],
    "line":
      [
        {"id": 7, "i_from": [0.2207981395333886, 30202.68634435644, 30202.787769790615], "i_from_angle": [0.8735609042665876, -0.21996615835303868, 2.9216329888268646], "i_to": [0.9441317795102099, 30202.39533600832, 30202.14967448056], "i_to_angle": [1.0876107220132711, 2.9216497598362423, -0.21997307728816726]},
        {"id": 8, "i_from": [0.5804176765500174, 0.5691695547562147, 0.5660249740434711], "i_from_angle": [1.0471968370379308, -1.064938478512468, -3.133165386596864], "i_to": [2.786640034782227e-11, 2.823131726757693e-11, 2.8024057144343582e-11], "i_to_angle": [-1.2077181233989953, 2.9799778266308055, 0.8748490507371449]}
      ],
    "fault":
      [
        {"id": 10, "i": [0.0, 46439.21174994914, 46439.21174994914], "i_angle": [0.0, -0.3218165220216651, 2.819776131568128]}
      ],
    "shunt":
      [
        {"id": 9, "i": [0.0, 0.0, 0.0], "i_angle": [0.0, 0.0, 0.0]}
      ],
    "source":
      [
        {"id": 4, "i": [641.9453401381861, 1283.8858591379762, 641.9405192438862], "i_angle": [2.6346095356312937, -0.5070026177799832, 2.6345705358418856]},
        {"id": 5, "i": [1.5242559305344006, 30202.01756149075, 30201.598349540753], "i_angle": [-2.069367453960514, -0.2199287979827633, 2.9216153328439107]}
      ]
  }
,
  {
    "node":
      [
        {"id": 0, "u_pu": [0.9549178929785012, 0.8339083271798209, 0.9673876629008664], "u_angle": [-0.07180708255136156, -2.07779894457488, 2.1724468967308708], "u": [82698.3153847692, 72218.57957651102, 83778.22913798074]},
        {"id": 1, "u_pu": [1.0000112582718093, 0.5000056291359047, 0.5000056291359047], "u_angle": [-0.5236009434804879, 2.617991710109305, 2.617991710109305], "u": [5773.567691558856, 2886.7838457794282, 2886.7838457794282]},
        {"id": 2, "u_pu": [1.0000013163689014, 0.9806219331161372, 0.9752041366223958], "u_angle": [-0.5235988740361418, -2.6357341895880966, 1.5792242095079987], "u": [5773.510291955654, 5661.623370578531, 5630.343707937769]},
        {"id": 3, "u_pu": [1.0000051616973997, 0.9806257039246385, 0.9752078865977176], "u_angle": [-0.5236001055451974, -2.635735421097152, 1.579222977998943], "u": [5773.53249297009, 5661.645141351563, 5630.365358430384]}
      ],
    "transformer":
      [
        {"id": 6, "i_from": [740.7061616979056, 2153.401642651698, 1718.5277771893475], "i_from_angle": [-0.5069831179584957, -2.8529107624412764, 0.6016505699359741], "i_to": [20442.447688722837, 28710.39242003104, 11546.917905101322], "i_to_angle": [-3.0484186971846614, 0.42744774462027985, -2.094393966725646]}
      ],
    "line":
      [
        {"id": 7, "i_from": [0.2207981395333886, 30202.68634435644, 30202.787769790615], "i_from_angle": [0.8735609042665876, -0.21996615835303868, 2.9216329888268646], "i_to": [0.9441317795102099, 30202.39533600832, 30202.14967448056], "i_to_angle": [1.0876107220132711, 2.9216497598362423, -0.21997307728816726]},
        {"id": 8, "i_from": [0.5804176765500174, 0.5691695547562147, 0.5660249740434711], "i_from_angle": [1.0471968370379308, -1.064938478512468, -3.133165386596864], "i_to": [2.786640034782227e-11, 2.823131726757693e-11, 2.8024057144343582e-11], "i_to_angle": [-1.2077181233989953, 2.9799778266308055, 0.8748490507371449]}
      ],
    "fault":
      [
        {"id": 10, "i": [0.0, 46439.21174994914, 46439.21174994914], "i_angle": [0.0, -0.3218165220216651, 2.819776131568128]}
      ],
    "source":
      [
        {"id": 4, "i": [641.9453401381861, 1283.8858591379762, 641.9405192438862], "i_angle": [2.6346095356312937, -0.5070026177799832, 2.6345705358418856]},
        {"id": 5, "i": [1.5242559305344006, 30202.01756149075, 30201.598349540753], "i_angle": [-2.069367453960514, -0.2199287979827633, 2.9216153328439107]}
      ]
  }
,
  {
    "node":
      [
        {"id": 0, "u_pu": [0.8705419063370643, 0.833908327179821, 0.884395783712567], "u_angle": [-0.026512397447462734, -2.07779894457488, 2.1248623196746323], "u": [75391.14059468311, 72218.57957651104, 76590.9215694931]},
        {"id": 1, "u_pu": [0.3591437856596892, 0.1795718928298446, 0.17957189282984468], "u_angle": [-0.708787039238806, 2.432805614350987, 2.4328056143509866], "u": [2073.5176132840284, 1036.7588066420142, 1036.7588066420146]},
        {"id": 2, "u_pu": [0.010847125323904399, 0.005423562661952201, 0.0054235626619521995], "u_angle": [-0.504819827684201, 2.6367728259055916, 2.636772825905592], "u": [62.62590725689812, 31.312953628449065, 31.31295362844906]},
        {"id": 3, "u_pu": [0.01084716703460962, 0.00542358351730481, 0.00542358351730481], "u_angle": [-0.5048210591932566, 2.6367715943965364, 2.6367715943965364], "u": [62.62614807376699, 31.313074036883496, 31.313074036883496]}
      ],
    "transformer":
      [
        {"id": 6, "i_from": [1170.6897901741604, 1681.6498621308147, 1571.095827066525], "i_from_angle": [-1.2951261349781995, 2.962322690884874, 0.5540659928797357], "i_to": [18275.02804933436, 22792.751038483282, 16528.870106530285], "i_to_angle": [2.515725935032456, 0.1743462148116309, -2.051030148872182]}
      ],
    "line":
      [
        {"id": 7, "i_from": [12524.97000513014, 6262.485002565069, 6262.485002565072], "i_from_angle": [-1.9759424258429497, 1.1656502277468435, 1.165650227746843], "i_to": [12525.175186770162, 6262.58759338508, 6262.587593385083], "i_to_angle": [1.1656452016183112, -1.9759474519714821, -1.9759474519714824]},
        {"id": 8, "i_from": [0.006295854989909528, 0.003147927494861177, 0.0031479274950483513], "i_from_angle": [1.065975883371491, -2.075616770186377, -2.075616770250228], "i_to": [1.7436746845496488e-13, 1.603369244237768e-13, 8.65445959859713e-14], "i_to_angle": [-0.628796286415433, 3.0292656656533925, 1.3576274594948188]}
      ],
    "fault":
      [
        {"id": 10, "i": [0.0, 16678.166543596424, 16678.166543596424], "i_angle": [0.0, -0.5070026177799831, 2.63459003580981]}
      ],
    "shunt":
      [
        {"id": 9, "i": [0.0, 0.0, 0.0], "i_angle": [0.0, 0.0, 0.0]}
      ],
    "source":
      [
        {"id": 4, "i": [1014.5978181509402, 1283.885859137975, 916.8452475272559], "i_angle": [1.8464665186115932, -0.5070026177799833, -2.7465009428182703]}
      ]
  }
,
  {
    "node":
      [
        {"id": 0, "u_pu": [0.8705419063370643, 0.833908327179821, 0.884395783712567], "u_angle": [-0.026512397447462734, -2.07779894457488, 2.1248623196746323], "u": [75391.14059468311, 72218.57957651104, 76590.9215694931]},
        {"id": 1, "u_pu": [0.3591437856596892, 0.1795718928298446, 0.17957189282984468], "u_angle": [-0.708787039238806, 2.432805614350987, 2.4328056143509866], "u": [2073.5176132840284, 1036.7588066420142, 1036.7588066420146]},
        {"id": 2, "u_pu": [0.010847125323904399, 0.005423562661952201, 0.0054235626619521995], "u_angle": [-0.504819827684201, 2.6367728259055916, 2.636772825905592], "u": [62.62590725689812, 31.312953628449065, 31.31295362844906]},
        {"id": 3, "u_pu": [0.01084716703460962, 0.00542358351730481, 0.00542358351730481], "u_angle": [-0.5048210591932566, 2.6367715943965364, 2.6367715943965364], "u": [62.62614807376699, 31.313074036883496, 31.313074036883496]}
      ],
    "transformer":
      [
        {"id": 6, "i_from": [1170.6897901741604, 1681.6498621308147, 1571.095827066525], "i_from_angle": [-1.2951261349781995, 2.962322690884874, 0.5540659928797357], "i_to": [18275.02804933436, 22792.751038483282, 16528.870106530285], "i_to_angle": [2.515725935032456, 0.1743462148116309, -2.051030148872182]}
      ],
    "line":
      [
        {"id": 7, "i_from": [12524.97000513014, 6262.485002565069, 6262.485002565072], "i_from_angle": [-1.9759424258429497, 1.1656502277468435, 1.165650227746843], "i_to": [12525.175186770162, 6262.58759338508, 6262.587593385083], "i_to_angle": [1.1656452016183112, -1.9759474519714821, -1.9759474519714824]},
        {"id": 8, "i_from": [0.006295854989909528, 0.003147927494861177, 0.0031479274950483513], "i_from_angle": [1.065975883371491, -2.075616770186377, -2.075616770250228], "i_to": [1.7436746845496488e-13, 1.603369244237768e-13, 8.65445959859713e-14], "i_to_angle": [-0.628796286415433, 3.0292656656533925, 1.3576274594948188]}
      ],
    "fault":
      [
        {"id": 10, "i": [0.0, 16678.166543596424, 16678.166543596424], "i_angle": [0.0, -0.5070026177799831, 2.63459003580981]}
      ],
    "source":
      [
        {"id": 4, "i": [1014.5978181509402, 1283.885859137975, 916.8452475272559], "i_angle": [1.8464665186115932, -0.5070026177799833, -2.7465009428182703]}
      ]
  }
,
  {
    "node":
      [
        {"id": 0, "u_pu": [0.9819023215775382, 0.8963475954005792, 0.9682937882503523], "u_angle": [-0.04969080115391708, -2.1114907669408627, 2.1368631700027283], "u": [85035.23545210653, 77625.97882379973, 83856.70189514752]},
        {"id": 1, "u_pu": [1.0000112582718093, 0.7085250818780489, 0.5039758513672393], "u_angle": [-0.5236009434804879, 3.111407561429306, 1.889328839761371], "u": [5773.567691558856, 4090.6714674989316, 2909.7059345194643]},
...