tests/data/short_circuit/two_phase_bc/sc_output_batch.json
[
  {
    "node":
      [
        {"id": 0, "u_pu": [0.9549178929785012, 0.8339083271798209, 0.9673876629008664], "u_angle": [-0.07180708255136155, -2.07779894457488, 2.1724468967308708], "u": [82698.3153847692, 72218.57957651102, 83778.22913798074]},
        {"id": 1, "u_pu": [1.0000112582718093, 0.5000056291359048, 0.5000056291359047], "u_angle": [-0.5236009434804879, 2.6179917101093055, 2.6179917101093046], "u": [5773.567691558856, 2886.7838457794287, 2886.7838457794282]},
        {"id": 2, "u_pu": [1.0000013163689014, 0.9806219331161371, 0.9752041366223958], "u_angle": [-0.5235988740361418, -2.6357341895880966, 1.5792242095079987], "u": [5773.510291955654, 5661.623370578531, 5630.343707937769]},
        {"id": 3, "u_pu": [1.0000051616973997, 0.9806257039246385, 0.9752078865977176], "u_angle": [-0.5236001055451974, -2.635735421097152, 1.5792229779989433], "u": [5773.53249297009, 5661.645141351563, 5630.365358430384]}
      ],
    "transformer":
      [
        {"id": 6, "i_from": [740.7061616979057, 2153.401642651698, 1718.5277771893477], "i_from_angle": [-0.5069831179584957, -2.8529107624412764, 0.6016505699359743], "i_to": [20442.447688722834, 28710.39242003104, 11546.917905101322], "i_to_angle": [-3.0484186971846614, 0.42744774462027996, -2.0943939667256455]}
      ],
    "line":
      [
        {"id": 7, "i_from": [0.22079813953139946, 30202.68634435644, 30202.78776979061], "i_from_angle": [0.873560904254195, -0.21996615835303854, 2.9216329888268646], "i_to": [0.9441317795134971, 30202.395336008314, 30202.14967448056], "i_to_angle": [1.0876107220141167, 2.9216497598362423, -0.21997307728816726]},
        {"id": 8, "i_from": [0.5804176765498911, 0.5691695547561085, 0.5660249740436999], "i_from_angle": [1.0471968370376012, -1.0649384785121108, -3.1331653865968914], "i_to": [2.7620111656731772e-11, 2.8293876292421683e-11, 2.821133880760715e-11], "i_to_angle": [-1.2102872836556822, 2.9887755617865053, 0.8686212076433937]}
      ],
    "fault":
      [
        {"id": 10, "i": [0.0, 46439.21174994913, 46439.21174994913], "i_angle": [0.0, -0.32181652202166505, 2.819776131568128]}
      ],
    "shunt":
      [
        {"id": 9, "i": [0.0, 0.0, 0.0], "i_angle": [0.0, 0.0, 0.0]}
      ],
    "source":
      [
        {"id": 4, "i": [641.945340138186, 1283.8858591379762, 641.9405192438862], "i_angle": [2.6346095356312937, -0.5070026177799832, 2.6345705358418856]},
        {"id": 5, "i": [1.524255930529949, 30202.01756149075, 30201.598349540753], "i_angle": [-2.0693674539596523, -0.2199287979827632, 2.9216153328439107]}
      ]
  }
,
  {
    "node":
      [
        {"id": 0, "u_pu": [0.9549178929785012, 0.8339083271798209, 0.9673876629008664], "u_angle": [-0.07180708255136155, -2.07779894457488, 2.1724468967308708], "u": [82698.3153847692, 72218.57957651102, 83778.22913798074]},
        {"id": 1, "u_pu": [1.0000112582718093, 0.5000056291359048, 0.5000056291359047], "u_angle": [-0.5236009434804879, 2.6179917101093055, 2.6179917101093046], "u": [5773.567691558856, 2886.7838457794287, 2886.7838457794282]},
        {"id": 2, "u_pu": [1.0000013163689014, 0.9806219331161371, 0.9752041366223958], "u_angle": [-0.5235988740361418, -2.6357341895880966, 1.5792242095079987], "u": [5773.510291955654, 5661.623370578531, 5630.343707937769]},
        {"id": 3, "u_pu": [1.0000051616973997, 0.9806257039246385, 0.9752078865977176], "u_angle": [-0.5236001055451974, -2.635735421097152, 1.5792229779989433], "u": [5773.53249297009, 5661.645141351563, 5630.365358430384]}
      ],
    "transformer":
      [
        {"id": 6, "i_from": [740.7061616979057, 2153.401642651698, 1718.5277771893477], "i_from_angle": [-0.5069831179584957, -2.8529107624412764, 0.6016505699359743], "i_to": [20442.447688722834, 28710.39242003104, 11546.917905101322], "i_to_angle": [-3.0484186971846614, 0.42744774462027996, -2.0943939667256455]}
      ],
    "line":
      [
        {"id": 7, "i_from": [0.22079813953139946, 30202.68634435644, 30202.78776979061], "i_from_angle": [0.873560904254195, -0.21996615835303854, 2.9216329888268646], "i_to": [0.9441317795134971, 30202.395336008314, 30202.14967448056], "i_to_angle": [1.0876107220141167, 2.9216497598362423, -0.21997307728816726]},
        {"id": 8, "i_from": [0.5804176765498911, 0.5691695547561085, 0.5660249740436999], "i_from_angle": [1.0471968370376012, -1.0649384785121108, -3.1331653865968914], "i_to": [2.7620111656731772e-11, 2.8293876292421683e-11, 2.821133880760715e-11], "i_to_angle": [-1.2102872836556822, 2.9887755617865053, 0.8686212076433937]}
      ],
    "fault":
      [
        {"id": 10, "i": [0.0, 46439.21174994913, 46439.21174994913], "i_angle": [0.0, -0.32181652202166505, 2.819776131568128]}
      ],
    "source":
      [
        {"id": 4, "i": [641.945340138186, 1283.8858591379762, 641.9405192438862], "i_angle": [2.6346095356312937, -0.5070026177799832, 2.6345705358418856]},
        {"id": 5, "i": [1.524255930529949, 30202.01756149075, 30201.598349540753], "i_angle": [-2.0693674539596523, -0.2199287979827632, 2.9216153328439107]}
      ]
  }
,
  {
    "node":
      [
        {"id": 0, "u_pu": [0.8705419063370643, 0.833908327179821, 0.884395783712567], "u_angle": [-0.026512397447462737, -2.07779894457488, 2.1248623196746323], "u": [75391.14059468311, 72218.57957651104, 76590.9215694931]},
        {"id": 1, "u_pu": [0.3591437856596892, 0.17957189282984465, 0.17957189282984462], "u_angle": [-0.708787039238806, 2.4328056143509875, 2.4328056143509866], "u": [2073.5176132840284, 1036.7588066420144, 1036.7588066420142]},
        {"id": 2, "u_pu": [0.010847125323904397, 0.0054235626619521995, 0.0054235626619521995], "u_angle": [-0.5048198276842009, 2.636772825905592, 2.636772825905592], "u": [62.62590725689811, 31.31295362844906, 31.31295362844906]},
        {"id": 3, "u_pu": [0.010847167034609617, 0.00542358351730481, 0.0054235835173048075], "u_angle": [-0.5048210591932567, 2.636771594396536, 2.6367715943965364], "u": [62.62614807376698, 31.313074036883496, 31.31307403688348]}
      ],
    "transformer":
      [
        {"id": 6, "i_from": [1170.6897901741604, 1681.6498621308147, 1571.0958270665249], "i_from_angle": [-1.2951261349781995, 2.962322690884874, 0.5540659928797358], "i_to": [18275.02804933436, 22792.751038483282, 16528.87010653029], "i_to_angle": [2.515725935032456, 0.174346214811631, -2.051030148872182]}
      ],
    "line":
      [
        {"id": 7, "i_from": [12524.970005130142, 6262.485002565073, 6262.48500256507], "i_from_angle": [-1.9759424258429497, 1.1656502277468437, 1.1656502277468432], "i_to": [12525.175186770164, 6262.587593385084, 6262.58759338508], "i_to_angle": [1.1656452016183114, -1.975947451971482, -1.9759474519714826]},
        {"id": 8, "i_from": [0.006295854989759518, 0.0031479274949907372, 0.003147927494768781], "i_from_angle": [1.0659758833304078, -2.0756167702721404, -2.0756167702466306], "i_to": [2.0869043056421321e-13, 1.1784592668312604e-13, 1.7270894416674843e-13], "i_to_angle": [1.7561442767905915, -0.4106697289941244, -1.9855034483215113]}
      ],
    "fault":
      [
        {"id": 10, "i": [0.0, 16678.166543596417, 16678.166543596417], "i_angle": [0.0, -0.507002617779983, 2.6345900358098104]}
      ],
    "shunt":
      [
        {"id": 9, "i": [0.0, 0.0, 0.0], "i_angle": [0.0, 0.0, 0.0]}
      ],
    "source":
      [
        {"id": 4, "i": [1014.5978181509402, 1283.885859137975, 916.8452475272559], "i_angle": [1.8464665186115932, -0.5070026177799833, -2.7465009428182703]}
      ]
  }
,
  {
    "node":
      [
        {"id": 0, "u_pu": [0.8705419063370643, 0.833908327179821, 0.884395783712567], "u_angle": [-0.026512397447462737, -2.07779894457488, 2.1248623196746323], "u": [75391.14059468311, 72218.57957651104, 76590.9215694931]},
        {"id": 1, "u_pu": [0.3591437856596892, 0.17957189282984465, 0.17957189282984462], "u_angle": [-0.708787039238806, 2.4328056143509875, 2.4328056143509866], "u": [2073.5176132840284, 1036.7588066420144, 1036.7588066420142]},
        {"id": 2, "u_pu": [0.010847125323904397, 0.0054235626619521995, 0.0054235626619521995], "u_angle": [-0.5048198276842009, 2.636772825905592, 2.636772825905592], "u": [62.62590725689811, 31.31295362844906, 31.31295362844906]},
        {"id": 3, "u_pu": [0.010847167034609617, 0.00542358351730481, 0.0054235835173048075], "u_angle": [-0.5048210591932567, 2.636771594396536, 2.6367715943965364], "u": [62.62614807376698, 31.313074036883496, 31.31307403688348]}
      ],
    "transformer":
      [
        {"id": 6, "i_from": [1170.6897901741604, 1681.6498621308147, 1571.0958270665249], "i_from_angle": [-1.2951261349781995, 2.962322690884874, 0.5540659928797358], "i_to": [18275.02804933436, 22792.751038483282, 16528.87010653029], "i_to_angle": [2.515725935032456, 0.174346214811631, -2.051030148872182]}
      ],
    "line":
      [
        {"id": 7, "i_from": [12524.970005130142, 6262.485002565073, 6262.48500256507], "i_from_angle": [-1.9759424258429497, 1.1656502277468437, 1.1656502277468432], "i_to": [12525.175186770164, 6262.587593385084, 6262.58759338508], "i_to_angle": [1.1656452016183114, -1.975947451971482, -1.9759474519714826]},
        {"id": 8, "i_from": [0.006295854989759518, 0.0031479274949907372, 0.003147927494768781], "i_from_angle": [1.0659758833304078, -2.0756167702721404, -2.0756167702466306], "i_to": [2.0869043056421321e-13, 1.1784592668312604e-13, 1.7270894416674843e-13], "i_to_angle": [1.7561442767905915, -0.4106697289941244, -1.9855034483215113]}
      ],
    "fault":
      [
        {"id": 10, "i": [0.0, 16678.166543596417, 16678.166543596417], "i_angle": [0.0, -0.507002617779983, 2.6345900358098104]}
      ],
    "source":
      [
        {"id": 4, "i": [1014.5978181509402, 1283.885859137975, 916.8452475272559], "i_angle": [1.8464665186115932, -0.5070026177799833, -2.7465009428182703]}
      ]
  }
,
  {
    "node":
      [
        {"id": 0, "u_pu": [0.9549178929785012, 0.8339083271798209, 0.9673876629008664], "u_angle": [-0.07180708255136155, -2.07779894457488, 2.1724468967308708], "u": [82698.3153847692, 72218.57957651102, 83778.22913798074]},
        {"id": 1, "u_pu": [1.0000112582718093, 0.5000056291359048, 0.5000056291359047], "u_angle": [-0.5236009434804879, 2.6179917101093055, 2.6179917101093046], "u": [5773.567691558856, 2886.7838457794287, 2886.7838457794282]},
        {"id": 2, "u_pu": [1.0000013163689014, 0.9806219331161371, 0.9752041366223958], "u_angle": [-0.5235988740361418, -2.6357341895880966, 1.5792242095079987], "u": [5773.510291955654, 5661.623370578531, 5630.343707937769]},
        {"id": 3, "u_pu": [1.0000051616973997, 0.9806257039246385, 0.9752078865977176], "u_angle": [-0.5236001055451974, -2.635735421097152, 1.5792229779989433], "u": [5773.53249297009, 5661.645141351563, 5630.365358430384]}
      ],
    "transformer":
      [
        {"id": 6, "i_from": [740.7061616979057, 2153.401642651698, 1718.5277771893477], "i_from_angle": [-0.5069831179584957, -2.8529107624412764, 0.6016505699359743], "i_to": [20442.447688722834, 28710.39242003104, 11546.917905101322], "i_to_angle": [-3.0484186971846614, 0.42744774462027996, -2.0943939667256455]}
      ],
    "line":
      [
        {"id": 7, "i_from": [0.22079813953139946, 30202.68634435644, 30202.78776979061], "i_from_angle": [0.873560904254195, -0.21996615835303854, 2.9216329888268646], "i_to": [0.9441317795134971, 30202.395336008314, 30202.14967448056], "i_to_angle": [1.0876107220141167, 2.9216497598362423, -0.21997307728816726]},
        {"id": 8, "i_from": [0.5804176765498911, 0.5691695547561085, 0.5660249740436999], "i_from_angle": [1.0471968370376012, -1.0649384785121108, -3.1331653865968914], "i_to": [2.7620111656731772e-11, 2.8293876292421683e-11, 2.821133880760715e-11], "i_to_angle": [-1.2102872836556822, 2.9887755617865053, 0.8686212076433937]}
      ],
    "fault":
      [
        {"id": 10, "i": [0.0, 46439.21174994913, 46439.21174994913], "i_angle": [0.0, -0.32181652202166505, 2.819776131568128]}
      ],
    "shunt":
      [
        {"id": 9, "i": [0.0, 0.0, 0.0], "i_angle": [0.0, 0.0, 0.0]}
      ],
    "source":
      [
        {"id": 4, "i": [641.945340138186, 1283.8858591379762, 641.9405192438862], "i_angle": [2.6346095356312937, -0.5070026177799832, 2.6345705358418856]},
        {"id": 5, "i": [1.524255930529949, 30202.01756149075, 30201.598349540753], "i_angle": [-2.0693674539596523, -0.2199287979827632, 2.9216153328439107]}
      ]
  }
,
  {
    "node":
      [
        {"id": 0, "u_pu": [0.9549178929785012, 0.8339083271798209, 0.9673876629008664], "u_angle": [-0.07180708255136155, -2.07779894457488, 2.1724468967308708], "u": [82698.3153847692, 72218.57957651102, 83778.22913798074]},
        {"id": 1, "u_pu": [1.0000112582718093, 0.5000056291359048, 0.5000056291359047], "u_angle": [-0.5236009434804879, 2.6179917101093055, 2.6179917101093046], "u": [5773.567691558856, 2886.7838457794287, 2886.7838457794282]},
        {"id": 2, "u_pu": [1.0000013163689014, 0.9806219331161371, 0.9752041366223958], "u_angle": [-0.5235988740361418, -2.6357341895880966, 1.5792242095079987], "u": [5773.510291955654, 5661.623370578531, 5630.343707937769]},
        {"id": 3, "u_pu": [1.0000051616973997, 0.9806257039246385, 0.9752078865977176], "u_angle": [-0.5236001055451974, -2.635735421097152, 1.5792229779989433], "u": [5773.53249297009, 5661.645141351563, 5630.365358430384]}
      ],
    "transformer":
      [
        {"id": 6, "i_from": [740.7061616979057, 2153.401642651698, 1718.5277771893477], "i_from_angle": [-0.5069831179584957, -2.8529107624412764, 0.6016505699359743], "i_to": [20442.447688722834, 28710.39242003104, 11546.917905101322], "i_to_angle": [-3.0484186971846614, 0.42744774462027996, -2.0943939667256455]}
      ],
    "line":
      [
        {"id": 7, "i_from": [0.22079813953139946, 30202.68634435644, 30202.78776979061], "i_from_angle": [0.873560904254195, -0.21996615835303854, 2.9216329888268646], "i_to": [0.9441317795134971, 30202.395336008314, 30202.14967448056], "i_to_angle": [1.0876107220141167, 2.9216497598362423, -0.21997307728816726]},
        {"id": 8, "i_from": [0.5804176765498911, 0.5691695547561085, 0.5660249740436999], "i_from_angle": [1.0471968370376012, -1.0649384785121108, -3.1331653865968914], "i_to": [2.7620111656731772e-11, 2.8293876292421683e-11, 2.821133880760715e-11], "i_to_angle": [-1.2102872836556822, 2.9887755617865053, 0.8686212076433937]}
      ],
    "fault":
      [
        {"id": 10, "i": [0.0, 46439.21174994913, 46439.21174994913], "i_angle": [0.0, -0.32181652202166505, 2.819776131568128]}
      ],
    "source":
      [
        {"id": 4, "i": [641.945340138186, 1283.8858591379762, 641.9405192438862], "i_angle": [2.6346095356312937, -0.5070026177799832, 2.6345705358418856]},
        {"id": 5, "i": [1.524255930529949, 30202.01756149075, 30201.598349540753], "i_angle": [-2.0693674539596523, -0.2199287979827632, 2.9216153328439107]}
      ]
  }
,
  {
    "node":
      [
        {"id": 0, "u_pu": [0.8705419063370643, 0.833908327179821, 0.884395783712567], "u_angle": [-0.026512397447462737, -2.07779894457488, 2.1248623196746323], "u": [75391.14059468311, 72218.57957651104, 76590.9215694931]},
        {"id": 1, "u_pu": [0.3591437856596892, 0.17957189282984465, 0.17957189282984462], "u_angle": [-0.708787039238806, 2.4328056143509875, 2.4328056143509866], "u": [2073.5176132840284, 1036.7588066420144, 1036.7588066420142]},
        {"id": 2, "u_pu": [0.010847125323904397, 0.0054235626619521995, 0.0054235626619521995], "u_angle": [-0.5048198276842009, 2.636772825905592, 2.636772825905592], "u": [62.62590725689811, 31.31295362844906, 31.31295362844906]},
        {"id": 3, "u_pu": [0.010847167034609617, 0.00542358351730481, 0.0054235835173048075], "u_angle": [-0.5048210591932567, 2.636771594396536, 2.6367715943965364], "u": [62.62614807376698, 31.313074036883496, 31.31307403688348]}
      ],
    "transformer":
      [
        {"id": 6, "i_from": [1170.6897901741604, 1681.6498621308147, 1571.0958270665249], "i_from_angle": [-1.2951261349781995, 2.962322690884874, 0.5540659928797358], "i_to": [18275.02804933436, 22792.751038483282, 16528.87010653029], "i_to_angle": [2.515725935032456, 0.174346214811631, -2.051030148872182]}
      ],
    "line":
      [
        {"id": 7, "i_from": [12524.970005130142, 6262.485002565073, 6262.48500256507], "i_from_angle": [-1.9759424258429497, 1.1656502277468437, 1.1656502277468432], "i_to": [12525.175186770164, 6262.587593385084, 6262.58759338508], "i_to_angle": [1.1656452016183114, -1.975947451971482, -1.9759474519714826]},
        {"id": 8, "i_from": [0.006295854989759518, 0.0031479274949907372, 0.003147927494768781], "i_from_angle": [1.0659758833304078, -2.0756167702721404, -2.0756167702466306], "i_to": [2.0869043056421321e-13, 1.1784592668312604e-13, 1.7270894416674843e-13], "i_to_angle": [1.7561442767905915, -0.4106697289941244, -1.9855034483215113]}
      ],
    "fault":
      [
        {"id": 10, "i": [0.0, 16678.166543596417, 16678.166543596417], "i_angle": [0.0, -0.507002617779983, 2.6345900358098104]}
      ],
    "shunt":
      [
        {"id": 9, "i": [0.0, 0.0, 0.0], "i_angle": [0.0, 0.0, 0.0]}
      ],
    "source":
      [
        {"id": 4, "i": [1014.5978181509402, 1283.885859137975, 916.8452475272559], "i_angle": [1.8464665186115932, -0.5070026177799833, -2.7465009428182703]}
      ]
  }
,
  {
    "node":
      [
        {"id": 0, "u_pu": [0.8705419063370643, 0.833908327179821, 0.884395783712567], "u_angle": [-0.026512397447462737, -2.07779894457488, 2.1248623196746323], "u": [75391.14059468311, 72218.57957651104, 76590.9215694931]},
        {"id": 1, "u_pu": [0.3591437856596892, 0.17957189282984465, 0.17957189282984462], "u_angle": [-0.708787039238806, 2.4328056143509875, 2.4328056143509866], "u": [2073.5176132840284, 1036.7588066420144, 1036.7588066420142]},
        {"id": 2, "u_pu": [0.010847125323904397, 0.0054235626619521995, 0.0054235626619521995], "u_angle": [-0.5048198276842009, 2.636772825905592, 2.636772825905592], "u": [62.62590725689811, 31.31295362844906, 31.31295362844906]},
        {"id": 3, "u_pu": [0.010847167034609617, 0.00542358351730481, 0.0054235835173048075], "u_angle": [-0.5048210591932567, 2.636771594396536, 2.6367715943965364], "u": [62.62614807376698, 31.313074036883496, 31.31307403688348]}
      ],
    "transformer":
      [
        {"id": 6, "i_from": [1170.6897901741604, 1681.6498621308147, 1571.0958270665249], "i_from_angle": [-1.2951261349781995, 2.962322690884874, 0.5540659928797358], "i_to": [18275.02804933436, 22792.751038483282, 16528.87010653029], "i_to_angle": [2.515725935032456, 0.174346214811631, -2.051030148872182]}
      ],
    "line":
      [
        {"id": 7, "i_from": [12524.970005130142, 6262.485002565073, 6262.48500256507], "i_from_angle": [-1.9759424258429497, 1.1656502277468437, 1.1656502277468432], "i_to": [12525.175186770164, 6262.587593385084, 6262.58759338508], "i_to_angle": [1.1656452016183114, -1.975947451971482, -1.9759474519714826]},
        {"id": 8, "i_from": [0.006295854989759518, 0.0031479274949907372, 0.003147927494768781], "i_from_angle": [1.0659758833304078, -2.0756167702721404, -2.0756167702466306], "i_to": [2.0869043056421321e-13, 1.1784592668312604e-13, 1.7270894416674843e-13], "i_to_angle": [1.7561442767905915, -0.4106697289941244, -1.9855034483215113]}
      ],
    "fault":
      [
        {"id": 10, "i": [0.0, 16678.166543596417, 16678.166543596417], "i_angle": [0.0, -0.507002617779983, 2.6345900358098104]}
      ],
    "source":
      [
        {"id": 4, "i": [1014.5978181509402, 1283.885859137975, 916.8452475272559], "i_angle": [1.8464665186115932, -0.5070026177799833, -2.7465009428182703]}
      ]
  }
,
  {
    "node":
      [
        {"id": 0, "u_pu": [0.9549178929785012, 0.8339083271798209, 0.9673876629008664], "u_angle": [-0.07180708255136155, -2.07779894457488, 2.1724468967308708], "u": [82698.3153847692, 72218.57957651102, 83778.22913798074]},
        {"id": 1, "u_pu": [1.0000112582718093, 0.5000056291359048, 0.5000056291359047], "u_angle": [-0.5236009434804879, 2.6179917101093055, 2.6179917101093046], "u": [5773.567691558856, 2886.7838457794287, 2886.7838457794282]},
        {"id": 2, "u_pu": [1.0000013163689014, 0.9806219331161371, 0.9752041366223958], "u_angle": [-0.5235988740361418, -2.6357341895880966, 1.5792242095079987], "u": [5773.510291955654, 5661.623370578531, 5630.343707937769]},
        {"id": 3, "u_pu": [1.0000051616973997, 0.9806257039246385, 0.9752078865977176], "u_angle": [-0.5236001055451974, -2.635735421097152, 1.5792229779989433], "u": [5773.53249297009, 5661.645141351563, 5630.365358430384]}
      ],
    "transformer":
      [
        {"id": 6, "i_from": [740.7061616979057, 2153.401642651698, 1718.5277771893477], "i_from_angle": [-0.5069831179584957, -2.8529107624412764, 0.6016505699359743], "i_to": [20442.447688722834, 28710.39242003104, 11546.917905101322], "i_to_angle": [-3.0484186971846614, 0.42744774462027996, -2.0943939667256455]}
      ],
    "line":
      [
        {"id": 7, "i_from": [0.22079813953139946, 30202.68634435644, 30202.78776979061], "i_from_angle": [0.873560904254195, -0.21996615835303854, 2.9216329888268646], "i_to": [0.9441317795134971, 30202.395336008314, 30202.14967448056], "i_to_angle": [1.0876107220141167, 2.9216497598362423, -0.21997307728816726]},
        {"id": 8, "i_from": [0.5804176765498911, 0.5691695547561085, 0.5660249740436999], "i_from_angle": [1.0471968370376012, -1.0649384785121108, -3.1331653865968914], "i_to": [2.7620111656731772e-11, 2.8293876292421683e-11, 2.821133880760715e-11], "i_to_angle": [-1.2102872836556822, 2.9887755617865053, 0.8686212076433937]}
      ],
    "fault":
      [
        {"id": 10, "i": [0.0, 46439.21174994913, 46439.21174994913], "i_angle": [0.0, -0.32181652202166505, 2.819776131568128]}
      ],
    "shunt":
      [
        {"id": 9, "i": [0.0, 0.0, 0.0], "i_angle": [0.0, 0.0, 0.0]}
      ],
    "source":
      [
        {"id": 4, "i": [641.945340138186, 1283.8858591379762, 641.9405192438862], "i_angle": [2.6346095356312937, -0.5070026177799832, 2.6345705358418856]},
        {"id": 5, "i": [1.524255930529949, 30202.01756149075, 30201.598349540753], "i_angle": [-2.0693674539596523, -0.2199287979827632, 2.9216153328439107]}
      ]
  }
,
  {
    "node":
      [
        {"id": 0, "u_pu": [0.9549178929785012, 0.8339083271798209, 0.9673876629008664], "u_angle": [-0.07180708255136155, -2.07779894457488, 2.1724468967308708], "u": [82698.3153847692, 72218.57957651102, 83778.22913798074]},
        {"id": 1, "u_pu": [1.0000112582718093, 0.5000056291359048, 0.5000056291359047], "u_angle": [-0.5236009434804879, 2.6179917101093055, 2.6179917101093046], "u": [5773.567691558856, 2886.7838457794287, 2886.7838457794282]},
        {"id": 2, "u_pu": [1.0000013163689014, 0.9806219331161371, 0.9752041366223958], "u_angle": [-0.5235988740361418, -2.6357341895880966, 1.5792242095079987], "u": [5773.510291955654, 5661.623370578531, 5630.343707937769]},
        {"id": 3, "u_pu": [1.0000051616973997, 0.9806257039246385, 0.9752078865977176], "u_angle": [-0.5236001055451974, -2.635735421097152, 1.5792229779989433], "u": [5773.53249297009, 5661.645141351563, 5630.365358430384]}
      ],
    "transformer":
      [
        {"id": 6, "i_from": [740.7061616979057, 2153.401642651698, 1718.5277771893477], "i_from_angle": [-0.5069831179584957, -2.8529107624412764, 0.6016505699359743], "i_to": [20442.447688722834, 28710.39242003104, 11546.917905101322], "i_to_angle": [-3.0484186971846614, 0.42744774462027996, -2.0943939667256455]}
      ],
    "line":
      [
        {"id": 7, "i_from": [0.22079813953139946, 30202.68634435644, 30202.78776979061], "i_from_angle": [0.873560904254195, -0.21996615835303854, 2.9216329888268646], "i_to": [0.9441317795134971, 30202.395336008314, 30202.14967448056], "i_to_angle": [1.0876107220141167, 2.9216497598362423, -0.21997307728816726]},
        {"id": 8, "i_from": [0.5804176765498911, 0.5691695547561085, 0.5660249740436999], "i_from_angle": [1.0471968370376012, -1.0649384785121108, -3.1331653865968914], "i_to": [2.7620111656731772e-11, 2.8293876292421683e-11, 2.821133880760715e-11], "i_to_angle": [-1.2102872836556822, 2.9887755617865053, 0.8686212076433937]}
      ],
    "fault":
      [
        {"id": 10, "i": [0.0, 46439.21174994913, 46439.21174994913], "i_angle": [0.0, -0.32181652202166505, 2.819776131568128]}
      ],
    "source":
      [
        {"id": 4, "i": [641.945340138186, 1283.8858591379762, 641.9405192438862], "i_angle": [2.6346095356312937, -0.5070026177799832, 2.6345705358418856]},
        {"id": 5, "i": [1.524255930529949, 30202.01756149075, 30201.598349540753], "i_angle": [-2.0693674539596523, -0.2199287979827632, 2.9216153328439107]}
      ]
  }
,
  {
    "node":
      [
        {"id": 0, "u_pu": [0.8705419063370643, 0.833908327179821, 0.884395783712567], "u_angle": [-0.026512397447462737, -2.07779894457488, 2.1248623196746323], "u": [75391.14059468311, 72218.57957651104, 76590.9215694931]},
        {"id": 1, "u_pu": [0.3591437856596892, 0.17957189282984465, 0.17957189282984462], "u_angle": [-0.708787039238806, 2.4328056143509875, 2.4328056143509866], "u": [2073.5176132840284, 1036.7588066420144, 1036.7588066420142]},
        {"id": 2, "u_pu": [0.010847125323904397, 0.0054235626619521995, 0.0054235626619521995], "u_angle": [-0.5048198276842009, 2.636772825905592, 2.636772825905592], "u": [62.62590725689811, 31.31295362844906, 31.31295362844906]},
        {"id": 3, "u_pu": [0.010847167034609617, 0.00542358351730481, 0.0054235835173048075], "u_angle": [-0.5048210591932567, 2.636771594396536, 2.6367715943965364], "u": [62.62614807376698, 31.313074036883496, 31.31307403688348]}
      ],
    "transformer":
      [
        {"id": 6, "i_from": [1170.6897901741604, 1681.6498621308147, 1571.0958270665249], "i_from_angle": [-1.2951261349781995, 2.962322690884874, 0.5540659928797358], "i_to": [18275.02804933436, 22792.751038483282, 16528.87010653029], "i_to_angle": [2.515725935032456, 0.174346214811631, -2.051030148872182]}
      ],
    "line":
      [
        {"id": 7, "i_from": [12524.970005130142, 6262.485002565073, 6262.48500256507], "i_from_angle": [-1.9759424258429497, 1.1656502277468437, 1.1656502277468432], "i_to": [12525.175186770164, 6262.587593385084, 6262.58759338508], "i_to_angle": [1.1656452016183114, -1.975947451971482, -1.9759474519714826]},
        {"id": 8, "i_from": [0.006295854989759518, 0.0031479274949907372, 0.003147927494768781], "i_from_angle": [1.0659758833304078, -2.0756167702721404, -2.0756167702466306], "i_to": [2.0869043056421321e-13, 1.1784592668312604e-13, 1.7270894416674843e-13], "i_to_angle": [1.7561442767905915, -0.4106697289941244, -1.9855034483215113]}
      ],
    "fault":
      [
        {"id": 10, "i": [0.0, 16678.166543596417, 16678.166543596417], "i_angle": [0.0, -0.507002617779983, 2.6345900358098104]}
      ],
    "shunt":
      [
        {"id": 9, "i": [0.0, 0.0, 0.0], "i_angle": [0.0, 0.0, 0.0]}
      ],
    "source":
      [
        {"id": 4, "i": [1014.5978181509402, 1283.885859137975, 916.8452475272559], "i_angle": [1.8464665186115932, -0.5070026177799833, -2.7465009428182703]}
      ]
  }
,
  {
    "node":
      [
        {"id": 0, "u_pu": [0.8705419063370643, 0.833908327179821, 0.884395783712567], "u_angle": [-0.026512397447462737, -2.07779894457488, 2.1248623196746323], "u": [75391.14059468311, 72218.57957651104, 76590.9215694931]},
        {"id": 1, "u_pu": [0.3591437856596892, 0.17957189282984465, 0.17957189282984462], "u_angle": [-0.708787039238806, 2.4328056143509875, 2.4328056143509866], "u": [2073.5176132840284, 1036.7588066420144, 1036.7588066420142]},
        {"id": 2, "u_pu": [0.010847125323904397, 0.0054235626619521995, 0.0054235626619521995], "u_angle": [-0.5048198276842009, 2.636772825905592, 2.636772825905592], "u": [62.62590725689811, 31.31295362844906, 31.31295362844906]},
        {"id": 3, "u_pu": [0.010847167034609617, 0.00542358351730481, 0.0054235835173048075], "u_angle": [-0.5048210591932567, 2.636771594396536, 2.6367715943965364], "u": [62.62614807376698, 31.313074036883496, 31.31307403688348]}
      ],
    "transformer":
      [
        {"id": 6, "i_from": [1170.6897901741604, 1681.6498621308147, 1571.0958270665249], "i_from_angle": [-1.2951261349781995, 2.962322690884874, 0.5540659928797358], "i_to": [18275.02804933436, 22792.751038483282, 16528.87010653029], "i_to_angle": [2.515725935032456, 0.174346214811631, -2.051030148872182]}
      ],
    "line":
      [
        {"id": 7, "i_from": [12524.970005130142, 6262.485002565073, 6262.48500256507], "i_from_angle": [-1.9759424258429497, 1.1656502277468437, 1.1656502277468432], "i_to": [12525.175186770164, 6262.587593385084, 6262.58759338508], "i_to_angle": [1.1656452016183114, -1.975947451971482, -1.9759474519714826]},
        {"id": 8, "i_from": [0.006295854989759518, 0.0031479274949907372, 0.003147927494768781], "i_from_angle": [1.0659758833304078, -2.0756167702721404, -2.0756167702466306], "i_to": [2.0869043056421321e-13, 1.1784592668312604e-13, 1.7270894416674843e-13], "i_to_angle": [1.7561442767905915, -0.4106697289941244, -1.9855034483215113]}
      ],
    "fault":
      [
        {"id": 10, "i": [0.0, 16678.166543596417, 16678.166543596417], "i_angle": [0.0, -0.507002617779983, 2.6345900358098104]}
      ],
    "source":
      [
        {"id": 4, "i": [1014.5978181509402, 1283.885859137975, 916.8452475272559], "i_angle": [1.8464665186115932, -0.5070026177799833, -2.7465009428182703]}
      ]
  }
,
  {
    "node":
      [
        {"id": 0, "u_pu": [0.9819023215775382, 0.8963475954005792, 0.9682937882503523], "u_angle": [-0.04969080115391708, -2.1114907669408622, 2.1368631700027283], "u": [85035.23545210653, 77625.97882379973, 83856.70189514752]},
        {"id": 1, "u_pu": [1.0000112582718093, 0.7085250818780489, 0.5039758513672394], "u_angle": [-0.5236009434804879, 3.111407561429306, 1.8893288397613712], "u": [5773.567691558856, 4090.6714674989316, 2909.7059345194652]},
...